external_data/resilience_validation/external_snapshots/restored_final/Master.dss
! Generated by hacdcpf OpenDSS text exporter.
! Balanced three-phase AC snapshot; dynamic controls are exported only as steady PQ/source equivalents.
Clear
Set DefaultBaseFrequency=50
New Circuit.resilience_restored_final bus1=bus_1_xref_3.1.2.3 basekv=10 pu=1 angle=0 phases=3

New Line.Normally_open_inter_microgrid_tie bus1=bus_1_xref_3.1.2.3 bus2=bus_2_xref_4.1.2.3 phases=3 r1=0.04 x1=0.2 r0=0.04 x0=0.2 length=5 units=km
New Load.BusDemand1 bus1=bus_1_xref_3.1.2.3 phases=3 kv=10 kw=1000 kvar=200 model=1
New Load.BusDemand2 bus1=bus_2_xref_4.1.2.3 phases=3 kv=10 kw=600 kvar=120 model=1
New Generator.xref_supply_4 bus1=bus_2_xref_4.1.2.3 phases=3 kv=10 kw=50.0000000000003 kvar=0 model=1

Set VoltageBases=[10]
CalcVoltageBases

Solve
